pcf
* control data
restart estimation
6938 11246 1 0 2
    1     1 single point   1   0   0
5.0   2.0   0.3  0.03    10
3.0   3.0 0.001  0
0.1
30  0.01     3     3  0.01     3
1     1     1
* parameter groups
pos           absolute 0.01  0.0  switch  2.0 parabolic
* parameter data
node_dd_0 none relative   751460.700   743553.500   786596.770 pos 1.0 0.0 1
node_dd_1 none relative   573150.150   558978.310   603402.690 pos 1.0 0.0 1
node_de_0 none relative   752215.410   743553.500   786596.770 pos 1.0 0.0 1
node_de_1 none relative   572494.090   558978.310   603402.690 pos 1.0 0.0 1
node_df_0 none relative   752970.120   743553.500   786596.770 pos 1.0 0.0 1
node_df_1 none relative   571838.030   558978.310   603402.690 pos 1.0 0.0 1
node_dg_0 none relative   753724.830   743553.500   786596.770 pos 1.0 0.0 1
node_dg_1 none relative   571181.980   558978.310   603402.690 pos 1.0 0.0 1
node_dh_0 none relative   754479.540   743553.500   786596.770 pos 1.0 0.0 1
node_dh_1 none relative   570525.920   558978.310   603402.690 pos 1.0 0.0 1
node_di_0 none relative   755234.250   743553.500   786596.770 pos 1.0 0.0 1
node_di_1 none relative   569869.860   558978.310   603402.690 pos 1.0 0.0 1
node_dj_0 none relative   755988.960   743553.500   786596.770 pos 1.0 0.0 1
node_dj_1 none relative   569213.800   558978.310   603402.690 pos 1.0 0.0 1
node_dk_0 none relative   756743.670   743553.500   786596.770 pos 1.0 0.0 1
node_dk_1 none relative   568557.740   558978.310   603402.690 pos 1.0 0.0 1
node_dl_0 none relative   757498.380   743553.500   786596.770 pos 1.0 0.0 1
node_dl_1 none relative   567901.680   558978.310   603402.690 pos 1.0 0.0 1
node_dm_0 none relative   758253.090   743553.500   786596.770 pos 1.0 0.0 1
node_dm_1 none relative   567245.620   558978.310   603402.690 pos 1.0 0.0 1
node_dn_0 none relative   759007.800   743553.500   786596.770 pos 1.0 0.0 1
node_dn_1 none relative   566589.560   558978.310   603402.690 pos 1.0 0.0 1
node_ec_0 none relative   752116.760   743553.500   786596.770 pos 1.0 0.0 1
node_ec_1 none relative   573904.860   558978.310   603402.690 pos 1.0 0.0 1
node_ed_0 none relative   752871.470   743553.500   786596.770 pos 1.0 0.0 1
node_ed_1 none relative   573248.800   558978.310   603402.690 pos 1.0 0.0 1
node_ee_0 none relative   753626.180   743553.500   786596.770 pos 1.0 0.0 1
node_ee_1 none relative   572592.740   558978.310   603402.690 pos 1.0 0.0 1
node_ef_0 none relative   754380.890   743553.500   786596.770 pos 1.0 0.0 1
node_ef_1 none relative   571936.680   558978.310   603402.690 pos 1.0 0.0 1
node_eg_0 none relative   755135.600   743553.500   786596.770 pos 1.0 0.0 1
node_eg_1 none relative   571280.630   558978.310   603402.690 pos 1.0 0.0 1
node_eh_0 none relative   755890.310   743553.500   786596.770 pos 1.0 0.0 1
node_eh_1 none relative   570624.570   558978.310   603402.690 pos 1.0 0.0 1
node_ei_0 none relative   756645.020   743553.500   786596.770 pos 1.0 0.0 1
node_ei_1 none relative   569968.510   558978.310   603402.690 pos 1.0 0.0 1
node_ej_0 none relative   757399.730   743553.500   786596.770 pos 1.0 0.0 1
node_ej_1 none relative   569312.450   558978.310   603402.690 pos 1.0 0.0 1
node_ek_0 none relative   758154.440   743553.500   786596.770 pos 1.0 0.0 1
node_ek_1 none relative   568656.390   558978.310   603402.690 pos 1.0 0.0 1
node_el_0 none relative   758909.150   743553.500   786596.770 pos 1.0 0.0 1
node_el_1 none relative   568000.330   558978.310   603402.690 pos 1.0 0.0 1
node_em_0 none relative   759663.860   743553.500   786596.770 pos 1.0 0.0 1
node_em_1 none relative   567344.270   558978.310   603402.690 pos 1.0 0.0 1
node_fb_0 none relative   752772.820   743553.500   786596.770 pos 1.0 0.0 1
node_fb_1 none relative   574659.570   558978.310   603402.690 pos 1.0 0.0 1
node_fc_0 none relative   753527.530   743553.500   786596.770 pos 1.0 0.0 1
node_fc_1 none relative   574003.510   558978.310   603402.690 pos 1.0 0.0 1
node_fd_0 none relative   754282.240   743553.500   786596.770 pos 1.0 0.0 1
node_fd_1 none relative   573347.450   558978.310   603402.690 pos 1.0 0.0 1
node_fe_0 none relative   755036.950   743553.500   786596.770 pos 1.0 0.0 1
node_fe_1 none relative   572691.390   558978.310   603402.690 pos 1.0 0.0 1
node_ff_0 none relative   755791.660   743553.500   786596.770 pos 1.0 0.0 1
node_ff_1 none relative   572035.340   558978.310   603402.690 pos 1.0 0.0 1
node_fg_0 none relative   756546.370   743553.500   786596.770 pos 1.0 0.0 1
node_fg_1 none relative   571379.280   558978.310   603402.690 pos 1.0 0.0 1
node_fh_0 none relative   757301.080   743553.500   786596.770 pos 1.0 0.0 1
node_fh_1 none relative   570723.220   558978.310   603402.690 pos 1.0 0.0 1
node_fi_0 none relative   758055.790   743553.500   786596.770 pos 1.0 0.0 1
node_fi_1 none relative   570067.160   558978.310   603402.690 pos 1.0 0.0 1
node_fj_0 none relative   758810.500   743553.500   786596.770 pos 1.0 0.0 1
node_fj_1 none relative   569411.100   558978.310   603402.690 pos 1.0 0.0 1
node_fk_0 none relative   759565.210   743553.500   786596.770 pos 1.0 0.0 1
node_fk_1 none relative   568755.040   558978.310   603402.690 pos 1.0 0.0 1
node_fl_0 none relative   760319.920   743553.500   786596.770 pos 1.0 0.0 1
node_fl_1 none relative   568098.980   558978.310   603402.690 pos 1.0 0.0 1
node_ga_0 none relative   753428.880   743553.500   786596.770 pos 1.0 0.0 1
node_ga_1 none relative   575414.280   558978.310   603402.690 pos 1.0 0.0 1
node_gb_0 none relative   754183.590   743553.500   786596.770 pos 1.0 0.0 1
node_gb_1 none relative   574758.220   558978.310   603402.690 pos 1.0 0.0 1
node_gc_0 none relative   754938.300   743553.500   786596.770 pos 1.0 0.0 1
node_gc_1 none relative   574102.160   558978.310   603402.690 pos 1.0 0.0 1
node_gd_0 none relative   755693.010   743553.500   786596.770 pos 1.0 0.0 1
node_gd_1 none relative   573446.100   558978.310   603402.690 pos 1.0 0.0 1
node_ge_0 none relative   756447.720   743553.500   786596.770 pos 1.0 0.0 1
node_ge_1 none relative   572790.040   558978.310   603402.690 pos 1.0 0.0 1
node_gf_0 none relative   757202.430   743553.500   786596.770 pos 1.0 0.0 1
node_gf_1 none relative   572133.990   558978.310   603402.690 pos 1.0 0.0 1
node_gg_0 none relative   757957.140   743553.500   786596.770 pos 1.0 0.0 1
node_gg_1 none relative   571477.930   558978.310   603402.690 pos 1.0 0.0 1
node_gh_0 none relative   758711.850   743553.500   786596.770 pos 1.0 0.0 1
node_gh_1 none relative   570821.870   558978.310   603402.690 pos 1.0 0.0 1
node_gi_0 none relative   759466.560   743553.500   786596.770 pos 1.0 0.0 1
node_gi_1 none relative   570165.810   558978.310   603402.690 pos 1.0 0.0 1
node_gj_0 none relative   760221.270   743553.500   786596.770 pos 1.0 0.0 1
node_gj_1 none relative   569509.750   558978.310   603402.690 pos 1.0 0.0 1
node_gk_0 none relative   760975.980   743553.500   786596.770 pos 1.0 0.0 1
node_gk_1 none relative   568853.690   558978.310   603402.690 pos 1.0 0.0 1
node_gz_0 none relative   754084.940   743553.500   786596.770 pos 1.0 0.0 1
node_gz_1 none relative   576168.990   558978.310   603402.690 pos 1.0 0.0 1
node_ha_0 none relative   754839.650   743553.500   786596.770 pos 1.0 0.0 1
node_ha_1 none relative   575512.930   558978.310   603402.690 pos 1.0 0.0 1
node_hb_0 none relative   755594.360   743553.500   786596.770 pos 1.0 0.0 1
node_hb_1 none relative   574856.870   558978.310   603402.690 pos 1.0 0.0 1
node_hc_0 none relative   756349.070   743553.500   786596.770 pos 1.0 0.0 1
node_hc_1 none relative   574200.810   558978.310   603402.690 pos 1.0 0.0 1
node_hd_0 none relative   757103.780   743553.500   786596.770 pos 1.0 0.0 1
node_hd_1 none relative   573544.750   558978.310   603402.690 pos 1.0 0.0 1
node_he_0 none relative   757858.490   743553.500   786596.770 pos 1.0 0.0 1
node_he_1 none relative   572888.700   558978.310   603402.690 pos 1.0 0.0 1
node_hf_0 none relative   758613.200   743553.500   786596.770 pos 1.0 0.0 1
node_hf_1 none relative   572232.640   558978.310   603402.690 pos 1.0 0.0 1
node_hg_0 none relative   759367.910   743553.500   786596.770 pos 1.0 0.0 1
node_hg_1 none relative   571576.580   558978.310   603402.690 pos 1.0 0.0 1
node_hh_0 none relative   760122.620   743553.500   786596.770 pos 1.0 0.0 1
node_hh_1 none relative   570920.520   558978.310   603402.690 pos 1.0 0.0 1
node_hi_0 none relative   760877.330   743553.500   786596.770 pos 1.0 0.0 1
node_hi_1 none relative   570264.460   558978.310   603402.690 pos 1.0 0.0 1
node_hj_0 none relative   761632.040   743553.500   786596.770 pos 1.0 0.0 1
node_hj_1 none relative   569608.400   558978.310   603402.690 pos 1.0 0.0 1
node_hy_0 none relative   754741.000   743553.500   786596.770 pos 1.0 0.0 1
node_hy_1 none relative   576923.700   558978.310   603402.690 pos 1.0 0.0 1
node_hz_0 none relative   755495.710   743553.500   786596.770 pos 1.0 0.0 1
node_hz_1 none relative   576267.640   558978.310   603402.690 pos 1.0 0.0 1
node_ia_0 none relative   756250.420   743553.500   786596.770 pos 1.0 0.0 1
node_ia_1 none relative   575611.580   558978.310   603402.690 pos 1.0 0.0 1
node_ib_0 none relative   757005.130   743553.500   786596.770 pos 1.0 0.0 1
node_ib_1 none relative   574955.520   558978.310   603402.690 pos 1.0 0.0 1
node_ic_0 none relative   757759.840   743553.500   786596.770 pos 1.0 0.0 1
node_ic_1 none relative   574299.460   558978.310   603402.690 pos 1.0 0.0 1
node_id_0 none relative   758514.550   743553.500   786596.770 pos 1.0 0.0 1
node_id_1 none relative   573643.410   558978.310   603402.690 pos 1.0 0.0 1
node_ie_0 none relative   759269.260   743553.500   786596.770 pos 1.0 0.0 1
node_ie_1 none relative   572987.350   558978.310   603402.690 pos 1.0 0.0 1
node_if_0 none relative   760023.970   743553.500   786596.770 pos 1.0 0.0 1
node_if_1 none relative   572331.290   558978.310   603402.690 pos 1.0 0.0 1
node_ig_0 none relative   760778.670   743553.500   786596.770 pos 1.0 0.0 1
node_ig_1 none relative   571675.230   558978.310   603402.690 pos 1.0 0.0 1
node_ih_0 none relative   761533.380   743553.500   786596.770 pos 1.0 0.0 1
node_ih_1 none relative   571019.170   558978.310   603402.690 pos 1.0 0.0 1
node_ii_0 none relative   762288.090   743553.500   786596.770 pos 1.0 0.0 1
node_ii_1 none relative   570363.110   558978.310   603402.690 pos 1.0 0.0 1
node_ix_0 none relative   755397.060   743553.500   786596.770 pos 1.0 0.0 1
node_ix_1 none relative   577678.410   558978.310   603402.690 pos 1.0 0.0 1
node_iy_0 none relative   756151.770   743553.500   786596.770 pos 1.0 0.0 1
node_iy_1 none relative   577022.350   558978.310   603402.690 pos 1.0 0.0 1
node_iz_0 none relative   756906.480   743553.500   786596.770 pos 1.0 0.0 1
node_iz_1 none relative   576366.290   558978.310   603402.690 pos 1.0 0.0 1
node_ja_0 none relative   757661.190   743553.500   786596.770 pos 1.0 0.0 1
node_ja_1 none relative   575710.230   558978.310   603402.690 pos 1.0 0.0 1
node_jb_0 none relative   758415.900   743553.500   786596.770 pos 1.0 0.0 1
node_jb_1 none relative   575054.170   558978.310   603402.690 pos 1.0 0.0 1
node_jc_0 none relative   759170.610   743553.500   786596.770 pos 1.0 0.0 1
node_jc_1 none relative   574398.110   558978.310   603402.690 pos 1.0 0.0 1
node_jd_0 none relative   759925.310   743553.500   786596.770 pos 1.0 0.0 1
node_jd_1 none relative   573742.060   558978.310   603402.690 pos 1.0 0.0 1
node_je_0 none relative   760680.020   743553.500   786596.770 pos 1.0 0.0 1
node_je_1 none relative   573086.000   558978.310   603402.690 pos 1.0 0.0 1
node_jf_0 none relative   761434.730   743553.500   786596.770 pos 1.0 0.0 1
node_jf_1 none relative   572429.940   558978.310   603402.690 pos 1.0 0.0 1
node_jg_0 none relative   762189.440   743553.500   786596.770 pos 1.0 0.0 1
node_jg_1 none relative   571773.880   558978.310   603402.690 pos 1.0 0.0 1
node_jh_0 none relative   762944.150   743553.500   786596.770 pos 1.0 0.0 1
node_jh_1 none relative   571117.820   558978.310   603402.690 pos 1.0 0.0 1
node_jw_0 none relative   756053.120   743553.500   786596.770 pos 1.0 0.0 1
node_jw_1 none relative   578433.120   558978.310   603402.690 pos 1.0 0.0 1
node_jx_0 none relative   756807.830   743553.500   786596.770 pos 1.0 0.0 1
node_jx_1 none relative   577777.060   558978.310   603402.690 pos 1.0 0.0 1
node_jy_0 none relative   757562.540   743553.500   786596.770 pos 1.0 0.0 1
node_jy_1 none relative   577121.000   558978.310   603402.690 pos 1.0 0.0 1
node_jz_0 none relative   758317.250   743553.500   786596.770 pos 1.0 0.0 1
node_jz_1 none relative   576464.940   558978.310   603402.690 pos 1.0 0.0 1
node_ka_0 none relative   759071.950   743553.500   786596.770 pos 1.0 0.0 1
node_ka_1 none relative   575808.880   558978.310   603402.690 pos 1.0 0.0 1
node_kb_0 none relative   759826.660   743553.500   786596.770 pos 1.0 0.0 1
node_kb_1 none relative   575152.820   558978.310   603402.690 pos 1.0 0.0 1
node_kc_0 none relative   760581.370   743553.500   786596.770 pos 1.0 0.0 1
node_kc_1 none relative   574496.770   558978.310   603402.690 pos 1.0 0.0 1
node_kd_0 none relative   761336.080   743553.500   786596.770 pos 1.0 0.0 1
node_kd_1 none relative   573840.710   558978.310   603402.690 pos 1.0 0.0 1
node_ke_0 none relative   762090.790   743553.500   786596.770 pos 1.0 0.0 1
node_ke_1 none relative   573184.650   558978.310   603402.690 pos 1.0 0.0 1
node_kf_0 none relative   762845.500   743553.500   786596.770 pos 1.0 0.0 1
node_kf_1 none relative   572528.590   558978.310   603402.690 pos 1.0 0.0 1
node_kg_0 none relative   763600.210   743553.500   786596.770 pos 1.0 0.0 1
node_kg_1 none relative   571872.530   558978.310   603402.690 pos 1.0 0.0 1
node_kv_0 none relative   756709.180   743553.500   786596.770 pos 1.0 0.0 1
node_kv_1 none relative   579187.830   558978.310   603402.690 pos 1.0 0.0 1
node_kw_0 none relative   757463.880   743553.500   786596.770 pos 1.0 0.0 1
node_kw_1 none relative   578531.770   558978.310   603402.690 pos 1.0 0.0 1
node_kx_0 none relative   758218.590   743553.500   786596.770 pos 1.0 0.0 1
node_kx_1 none relative   577875.710   558978.310   603402.690 pos 1.0 0.0 1
node_ky_0 none relative   758973.300   743553.500   786596.770 pos 1.0 0.0 1
node_ky_1 none relative   577219.650   558978.310   603402.690 pos 1.0 0.0 1
node_kz_0 none relative   759728.010   743553.500   786596.770 pos 1.0 0.0 1
node_kz_1 none relative   576563.590   558978.310   603402.690 pos 1.0 0.0 1
node_la_0 none relative   760482.720   743553.500   786596.770 pos 1.0 0.0 1
node_la_1 none relative   575907.530   558978.310   603402.690 pos 1.0 0.0 1
node_lb_0 none relative   761237.430   743553.500   786596.770 pos 1.0 0.0 1
node_lb_1 none relative   575251.470   558978.310   603402.690 pos 1.0 0.0 1
node_lc_0 none relative   761992.140   743553.500   786596.770 pos 1.0 0.0 1
node_lc_1 none relative   574595.420   558978.310   603402.690 pos 1.0 0.0 1
node_ld_0 none relative   762746.850   743553.500   786596.770 pos 1.0 0.0 1
node_ld_1 none relative   573939.360   558978.310   603402.690 pos 1.0 0.0 1
node_le_0 none relative   763501.560   743553.500   786596.770 pos 1.0 0.0 1
node_le_1 none relative   573283.300   558978.310   603402.690 pos 1.0 0.0 1
node_lf_0 none relative   764256.270   743553.500   786596.770 pos 1.0 0.0 1
node_lf_1 none relative   572627.240   558978.310   603402.690 pos 1.0 0.0 1
node_lu_0 none relative   757365.230   743553.500   786596.770 pos 1.0 0.0 1
node_lu_1 none relative   579942.540   558978.310   603402.690 pos 1.0 0.0 1
node_lv_0 none relative   758119.940   743553.500   786596.770 pos 1.0 0.0 1
node_lv_1 none relative   579286.480   558978.310   603402.690 pos 1.0 0.0 1
node_lw_0 none relative   758874.650   743553.500   786596.770 pos 1.0 0.0 1
node_lw_1 none relative   578630.420   558978.310   603402.690 pos 1.0 0.0 1
node_lx_0 none relative   759629.360   743553.500   786596.770 pos 1.0 0.0 1
node_lx_1 none relative   577974.360   558978.310   603402.690 pos 1.0 0.0 1
node_ly_0 none relative   760384.070   743553.500   786596.770 pos 1.0 0.0 1
node_ly_1 none relative   577318.300   558978.310   603402.690 pos 1.0 0.0 1
node_lz_0 none relative   761138.780   743553.500   786596.770 pos 1.0 0.0 1
node_lz_1 none relative   576662.240   558978.310   603402.690 pos 1.0 0.0 1
node_ma_0 none relative   761893.490   743553.500   786596.770 pos 1.0 0.0 1
node_ma_1 none relative   576006.180   558978.310   603402.690 pos 1.0 0.0 1
node_mb_0 none relative   762648.200   743553.500   786596.770 pos 1.0 0.0 1
node_mb_1 none relative   575350.130   558978.310   603402.690 pos 1.0 0.0 1
node_mc_0 none relative   763402.910   743553.500   786596.770 pos 1.0 0.0 1
node_mc_1 none relative   574694.070   558978.310   603402.690 pos 1.0 0.0 1
node_md_0 none relative   764157.620   743553.500   786596.770 pos 1.0 0.0 1
node_md_1 none relative   574038.010   558978.310   603402.690 pos 1.0 0.0 1
node_me_0 none relative   764912.330   743553.500   786596.770 pos 1.0 0.0 1
node_me_1 none relative   573381.950   558978.310   603402.690 pos 1.0 0.0 1
node_mt_0 none relative   758021.290   743553.500   786596.770 pos 1.0 0.0 1
node_mt_1 none relative   580697.250   558978.310   603402.690 pos 1.0 0.0 1
node_mu_0 none relative   758776.000   743553.500   786596.770 pos 1.0 0.0 1
node_mu_1 none relative   580041.190   558978.310   603402.690 pos 1.0 0.0 1
node_mv_0 none relative   759530.710   743553.500   786596.770 pos 1.0 0.0 1
node_mv_1 none relative   579385.130   558978.310   603402.690 pos 1.0 0.0 1
node_mw_0 none relative   760285.420   743553.500   786596.770 pos 1.0 0.0 1
node_mw_1 none relative   578729.070   558978.310   603402.690 pos 1.0 0.0 1
node_mx_0 none relative   761040.130   743553.500   786596.770 pos 1.0 0.0 1
node_mx_1 none relative   578073.010   558978.310   603402.690 pos 1.0 0.0 1
node_my_0 none relative   761794.840   743553.500   786596.770 pos 1.0 0.0 1
node_my_1 none relative   577416.950   558978.310   603402.690 pos 1.0 0.0 1
node_mz_0 none relative   762549.550   743553.500   786596.770 pos 1.0 0.0 1
node_mz_1 none relative   576760.890   558978.310   603402.690 pos 1.0 0.0 1
node_na_0 none relative   763304.260   743553.500   786596.770 pos 1.0 0.0 1
node_na_1 none relative   576104.830   558978.310   603402.690 pos 1.0 0.0 1
node_nb_0 none relative   764058.970   743553.500   786596.770 pos 1.0 0.0 1
node_nb_1 none relative   575448.780   558978.310   603402.690 pos 1.0 0.0 1
node_nc_0 none relative   764813.680   743553.500   786596.770 pos 1.0 0.0 1
node_nc_1 none relative   574792.720   558978.310   603402.690 pos 1.0 0.0 1
node_nd_0 none relative   765568.390   743553.500   786596.770 pos 1.0 0.0 1
node_nd_1 none relative   574136.660   558978.310   603402.690 pos 1.0 0.0 1
node_ns_0 none relative   758677.350   743553.500   786596.770 pos 1.0 0.0 1
node_ns_1 none relative   581451.960   558978.310   603402.690 pos 1.0 0.0 1
node_nt_0 none relative   759432.060   743553.500   786596.770 pos 1.0 0.0 1
node_nt_1 none relative   580795.900   558978.310   603402.690 pos 1.0 0.0 1
node_nu_0 none relative   760186.770   743553.500   786596.770 pos 1.0 0.0 1
node_nu_1 none relative   580139.840   558978.310   603402.690 pos 1.0 0.0 1
node_nv_0 none relative   760941.480   743553.500   786596.770 pos 1.0 0.0 1
node_nv_1 none relative   579483.780   558978.310   603402.690 pos 1.0 0.0 1
node_nw_0 none relative   761696.190   743553.500   786596.770 pos 1.0 0.0 1
node_nw_1 none relative   578827.720   558978.310   603402.690 pos 1.0 0.0 1
node_nx_0 none relative   762450.900   743553.500   786596.770 pos 1.0 0.0 1
node_nx_1 none relative   578171.660   558978.310   603402.690 pos 1.0 0.0 1
node_ny_0 none relative   763205.610   743553.500   786596.770 pos 1.0 0.0 1
node_ny_1 none relative   577515.600   558978.310   603402.690 pos 1.0 0.0 1
node_nz_0 none relative   763960.320   743553.500   786596.770 pos 1.0 0.0 1
node_nz_1 none relative   576859.540   558978.310   603402.690 pos 1.0 0.0 1
node_oa_0 none relative   764715.030   743553.500   786596.770 pos 1.0 0.0 1
node_oa_1 none relative   576203.490   558978.310   603402.690 pos 1.0 0.0 1
node_ob_0 none relative   765469.740   743553.500   786596.770 pos 1.0 0.0 1
node_ob_1 none relative   575547.430   558978.310   603402.690 pos 1.0 0.0 1
node_oc_0 none relative   766224.450   743553.500   786596.770 pos 1.0 0.0 1
node_oc_1 none relative   574891.370   558978.310   603402.690 pos 1.0 0.0 1
node_or_0 none relative   759333.410   743553.500   786596.770 pos 1.0 0.0 1
node_or_1 none relative   582206.670   558978.310   603402.690 pos 1.0 0.0 1
node_os_0 none relative   760088.120   743553.500   786596.770 pos 1.0 0.0 1
node_os_1 none relative   581550.610   558978.310   603402.690 pos 1.0 0.0 1
node_ot_0 none relative   760842.830   743553.500   786596.770 pos 1.0 0.0 1
node_ot_1 none relative   580894.550   558978.310   603402.690 pos 1.0 0.0 1
node_ou_0 none relative   761597.540   743553.500   786596.770 pos 1.0 0.0 1
node_ou_1 none relative   580238.490   558978.310   603402.690 pos 1.0 0.0 1
node_ov_0 none relative   762352.250   743553.500   786596.770 pos 1.0 0.0 1
node_ov_1 none relative   579582.430   558978.310   603402.690 pos 1.0 0.0 1
node_ow_0 none relative   763106.960   743553.500   786596.770 pos 1.0 0.0 1
node_ow_1 none relative   578926.370   558978.310   603402.690 pos 1.0 0.0 1
node_ox_0 none relative   763861.670   743553.500   786596.770 pos 1.0 0.0 1
node_ox_1 none relative   578270.310   558978.310   603402.690 pos 1.0 0.0 1
node_oy_0 none relative   764616.380   743553.500   786596.770 pos 1.0 0.0 1
node_oy_1 none relative   577614.250   558978.310   603402.690 pos 1.0 0.0 1
node_oz_0 none relative   765371.090   743553.500   786596.770 pos 1.0 0.0 1
node_oz_1 none relative   576958.200   558978.310   603402.690 pos 1.0 0.0 1
node_pa_0 none relative   766125.800   743553.500   786596.770 pos 1.0 0.0 1
node_pa_1 none relative   576302.140   558978.310   603402.690 pos 1.0 0.0 1
node_pb_0 none relative   766880.510   743553.500   786596.770 pos 1.0 0.0 1
node_pb_1 none relative   575646.080   558978.310   603402.690 pos 1.0 0.0 1
node_pq_0 none relative   759989.470   743553.500   786596.770 pos 1.0 0.0 1
node_pq_1 none relative   582961.380   558978.310   603402.690 pos 1.0 0.0 1
node_pr_0 none relative   760744.180   743553.500   786596.770 pos 1.0 0.0 1
node_pr_1 none relative   582305.320   558978.310   603402.690 pos 1.0 0.0 1
node_ps_0 none relative   761498.890   743553.500   786596.770 pos 1.0 0.0 1
node_ps_1 none relative   581649.260   558978.310   603402.690 pos 1.0 0.0 1
node_pt_0 none relative   762253.600   743553.500   786596.770 pos 1.0 0.0 1
node_pt_1 none relative   580993.200   558978.310   603402.690 pos 1.0 0.0 1
node_pu_0 none relative   763008.310   743553.500   786596.770 pos 1.0 0.0 1
node_pu_1 none relative   580337.140   558978.310   603402.690 pos 1.0 0.0 1
node_pv_0 none relative   763763.020   743553.500   786596.770 pos 1.0 0.0 1
node_pv_1 none relative   579681.080   558978.310   603402.690 pos 1.0 0.0 1
node_pw_0 none relative   764517.730   743553.500   786596.770 pos 1.0 0.0 1
node_pw_1 none relative   579025.020   558978.310   603402.690 pos 1.0 0.0 1
node_px_0 none relative   765272.440   743553.500   786596.770 pos 1.0 0.0 1
node_px_1 none relative   578368.960   558978.310   603402.690 pos 1.0 0.0 1
node_py_0 none relative   766027.150   743553.500   786596.770 pos 1.0 0.0 1
node_py_1 none relative   577712.900   558978.310   603402.690 pos 1.0 0.0 1
node_pz_0 none relative   766781.860   743553.500   786596.770 pos 1.0 0.0 1
node_pz_1 none relative   577056.850   558978.310   603402.690 pos 1.0 0.0 1
node_qa_0 none relative   767536.570   743553.500   786596.770 pos 1.0 0.0 1
node_qa_1 none relative   576400.790   558978.310   603402.690 pos 1.0 0.0 1
node_qp_0 none relative   760645.530   743553.500   786596.770 pos 1.0 0.0 1
node_qp_1 none relative   583716.090   558978.310   603402.690 pos 1.0 0.0 1
node_qq_0 none relative   761400.240   743553.500   786596.770 pos 1.0 0.0 1
node_qq_1 none relative   583060.030   558978.310   603402.690 pos 1.0 0.0 1
node_qr_0 none relative   762154.950   743553.500   786596.770 pos 1.0 0.0 1
node_qr_1 none relative   582403.970   558978.310   603402.690 pos 1.0 0.0 1
node_qs_0 none relative   762909.660   743553.500   786596.770 pos 1.0 0.0 1
node_qs_1 none relative   581747.910   558978.310   603402.690 pos 1.0 0.0 1
node_qt_0 none relative   763664.370   743553.500   786596.770 pos 1.0 0.0 1
node_qt_1 none relative   581091.850   558978.310   603402.690 pos 1.0 0.0 1
node_qu_0 none relative   764419.080   743553.500   786596.770 pos 1.0 0.0 1
node_qu_1 none relative   580435.790   558978.310   603402.690 pos 1.0 0.0 1
node_qv_0 none relative   765173.790   743553.500   786596.770 pos 1.0 0.0 1
node_qv_1 none relative   579779.730   558978.310   603402.690 pos 1.0 0.0 1
node_qw_0 none relative   765928.500   743553.500   786596.770 pos 1.0 0.0 1
node_qw_1 none relative   579123.670   558978.310   603402.690 pos 1.0 0.0 1
node_qx_0 none relative   766683.210   743553.500   786596.770 pos 1.0 0.0 1
node_qx_1 none relative   578467.610   558978.310   603402.690 pos 1.0 0.0 1
node_qy_0 none relative   767437.920   743553.500   786596.770 pos 1.0 0.0 1
node_qy_1 none relative   577811.560   558978.310   603402.690 pos 1.0 0.0 1
node_qz_0 none relative   768192.630   743553.500   786596.770 pos 1.0 0.0 1
node_qz_1 none relative   577155.500   558978.310   603402.690 pos 1.0 0.0 1
node_ro_0 none relative   761301.590   743553.500   786596.770 pos 1.0 0.0 1
node_ro_1 none relative   584470.800   558978.310   603402.690 pos 1.0 0.0 1
node_rp_0 none relative   762056.300   743553.500   786596.770 pos 1.0 0.0 1
node_rp_1 none relative   583814.740   558978.310   603402.690 pos 1.0 0.0 1
node_rq_0 none relative   762811.010   743553.500   786596.770 pos 1.0 0.0 1
node_rq_1 none relative   583158.680   558978.310   603402.690 pos 1.0 0.0 1
node_rr_0 none relative   763565.720   743553.500   786596.770 pos 1.0 0.0 1
node_rr_1 none relative   582502.620   558978.310   603402.690 pos 1.0 0.0 1
node_rs_0 none relative   764320.430   743553.500   786596.770 pos 1.0 0.0 1
node_rs_1 none relative   581846.560   558978.310   603402.690 pos 1.0 0.0 1
node_rt_0 none relative   765075.140   743553.500   786596.770 pos 1.0 0.0 1
node_rt_1 none relative   581190.500   558978.310   603402.690 pos 1.0 0.0 1
node_ru_0 none relative   765829.850   743553.500   786596.770 pos 1.0 0.0 1
node_ru_1 none relative   580534.440   558978.310   603402.690 pos 1.0 0.0 1
node_rv_0 none relative   766584.560   743553.500   786596.770 pos 1.0 0.0 1
node_rv_1 none relative   579878.380   558978.310   603402.690 pos 1.0 0.0 1
node_rw_0 none relative   767339.270   743553.500   786596.770 pos 1.0 0.0 1
node_rw_1 none relative   579222.320   558978.310   603402.690 pos 1.0 0.0 1
node_rx_0 none relative   768093.970   743553.500   786596.770 pos 1.0 0.0 1
node_rx_1 none relative   578566.260   558978.310   603402.690 pos 1.0 0.0 1
node_ry_0 none relative   768848.680   743553.500   786596.770 pos 1.0 0.0 1
node_ry_1 none relative   577910.210   558978.310   603402.690 pos 1.0 0.0 1
node_sn_0 none relative   761957.650   743553.500   786596.770 pos 1.0 0.0 1
node_sn_1 none relative   585225.510   558978.310   603402.690 pos 1.0 0.0 1
node_so_0 none relative   762712.360   743553.500   786596.770 pos 1.0 0.0 1
node_so_1 none relative   584569.450   558978.310   603402.690 pos 1.0 0.0 1
node_sp_0 none relative   763467.070   743553.500   786596.770 pos 1.0 0.0 1
node_sp_1 none relative   583913.390   558978.310   603402.690 pos 1.0 0.0 1
node_sq_0 none relative   764221.780   743553.500   786596.770 pos 1.0 0.0 1
node_sq_1 none relative   583257.330   558978.310   603402.690 pos 1.0 0.0 1
node_sr_0 none relative   764976.490   743553.500   786596.770 pos 1.0 0.0 1
node_sr_1 none relative   582601.270   558978.310   603402.690 pos 1.0 0.0 1
node_ss_0 none relative   765731.200   743553.500   786596.770 pos 1.0 0.0 1
node_ss_1 none relative   581945.210   558978.310   603402.690 pos 1.0 0.0 1
node_st_0 none relative   766485.910   743553.500   786596.770 pos 1.0 0.0 1
node_st_1 none relative   581289.150   558978.310   603402.690 pos 1.0 0.0 1
node_su_0 none relative   767240.610   743553.500   786596.770 pos 1.0 0.0 1
node_su_1 none relative   580633.090   558978.310   603402.690 pos 1.0 0.0 1
node_sv_0 none relative   767995.320   743553.500   786596.770 pos 1.0 0.0 1
node_sv_1 none relative   579977.030   558978.310   603402.690 pos 1.0 0.0 1
node_sw_0 none relative   768750.030   743553.500   786596.770 pos 1.0 0.0 1
node_sw_1 none relative   579320.970   558978.310   603402.690 pos 1.0 0.0 1
node_sx_0 none relative   769504.740   743553.500   786596.770 pos 1.0 0.0 1
node_sx_1 none relative   578664.920   558978.310   603402.690 pos 1.0 0.0 1
node_tm_0 none relative   762613.710   743553.500   786596.770 pos 1.0 0.0 1
node_tm_1 none relative   585980.220   558978.310   603402.690 pos 1.0 0.0 1
node_tn_0 none relative   763368.420   743553.500   786596.770 pos 1.0 0.0 1
node_tn_1 none relative   585324.160   558978.310   603402.690 pos 1.0 0.0 1
node_to_0 none relative   764123.130   743553.500   786596.770 pos 1.0 0.0 1
node_to_1 none relative   584668.100   558978.310   603402.690 pos 1.0 0.0 1
node_tp_0 none relative   764877.840   743553.500   786596.770 pos 1.0 0.0 1
node_tp_1 none relative   584012.040   558978.310   603402.690 pos 1.0 0.0 1
node_tq_0 none relative   765632.540   743553.500   786596.770 pos 1.0 0.0 1
node_tq_1 none relative   583355.980   558978.310   603402.690 pos 1.0 0.0 1
node_tr_0 none relative   766387.250   743553.500   786596.770 pos 1.0 0.0 1